powerfulcases/cases/matpower/case13659pegase/case13659pegase.raw
0, 100, 33, 0, 0, 60  / 28-Jan-2026 21:50:30 - MATPOWER 8.1


     1, 'BUS 1       ',        20, 3,    0,    6, 1,    1.031695,           0,  1.1,  0.9,  1.1,  0.9
     2, 'BUS 2       ',       150, 1,    0,    9, 1,     1.00238,   -9.035194,  1.1,  0.9,  1.1,  0.9
     3, 'BUS 3       ',       220, 1,    0,    6, 1,    0.989665,   -7.514519,  1.1,  0.9,  1.1,  0.9
     4, 'BUS 4       ',       154, 1,    0,    1, 1,    1.005027,   12.325176,  1.1,  0.9,  1.1,  0.9
     5, 'BUS 5       ',       220, 1,    0,    5, 1,     0.98998,    7.445755,  1.1,  0.9,  1.1,  0.9
     6, 'BUS 6       ',       220, 1,    0,    5, 1,    1.004053,   22.504675,  1.1,  0.9,  1.1,  0.9
     7, 'BUS 7       ',       220, 1,    0,    6, 1,    0.978685,  -21.610492,  1.1,  0.9,  1.1,  0.9
     8, 'BUS 8       ',       380, 1,    0,    6, 1,    1.023941,    -13.3046,  1.1,  0.9,  1.1,  0.9
     9, 'BUS 9       ',       380, 1,    0,    5, 1,    0.995208,   14.929241,  1.1,  0.9,  1.1,  0.9
    10, 'BUS 10      ',       110, 1,    0,   21, 1,    0.935403,  -13.105656,  1.1,  0.9,  1.1,  0.9
    11, 'BUS 11      ',       154, 1,    0,    1, 1,    1.038279,    3.372868,  1.1,  0.9,  1.1,  0.9
    12, 'BUS 12      ',        20, 2,    0,    3, 1,    1.004054,   96.865589,  1.1,  0.9,  1.1,  0.9
    13, 'BUS 13      ',       154, 1,    0,    1, 1,    1.046187,   21.142072,  1.1,  0.9,  1.1,  0.9
    14, 'BUS 14      ',       220, 1,    0,    5, 1,    1.028056,    6.025887,  1.1,  0.9,  1.1,  0.9
    15, 'BUS 15      ',       150, 1,    0,    9, 1,    0.966985,   -9.629605,  1.1,  0.9,  1.1,  0.9
    16, 'BUS 16      ',       150, 1,    0,    9, 1,    1.048294,   -4.845447,  1.1,  0.9,  1.1,  0.9
    17, 'BUS 17      ',       220, 1,    0,    6, 1,     1.01052,  -21.436889,  1.1,  0.9,  1.1,  0.9
    18, 'BUS 18      ',        20, 2,    0,   14, 1,    1.043087,   11.638661,  1.1,  0.9,  1.1,  0.9
    19, 'BUS 19      ',       220, 1,    0,    4, 1,    1.029741,  -21.109094,  1.1,  0.9,  1.1,  0.9
    20, 'BUS 20      ',       154, 1,    0,    1, 1,    0.995795,   32.041235,  1.1,  0.9,  1.1,  0.9
    21, 'BUS 21      ',       380, 1,    0,    6, 1,    1.024139,  -12.441425,  1.1,  0.9,  1.1,  0.9
    22, 'BUS 22      ',       220, 1,    0,    3, 1,    1.012996,   31.441278,  1.1,  0.9,  1.1,  0.9
    23, 'BUS 23      ',       380, 1,    0,    3, 1,    1.023227,   43.176177,  1.1,  0.9,  1.1,  0.9
    24, 'BUS 24      ',       110, 1,    0,   12, 1,    0.977442,  -13.211902,  1.1,  0.9,  1.1,  0.9
    25, 'BUS 25      ',       154, 1,    0,    1, 1,     1.01187,   32.552868,  1.1,  0.9,  1.1,  0.9
    26, 'BUS 26      ',       220, 1,    0,    5, 1,    1.030926,     8.56355,  1.1,  0.9,  1.1,  0.9
    27, 'BUS 27      ',       220, 1,    0,    5, 1,    1.032196,   11.548192,  1.1,  0.9,  1.1,  0.9
    28, 'BUS 28      ',       110, 1,    0,   19, 1,    0.994911,   -5.413569,  1.1,  0.9,  1.1,  0.9
    29, 'BUS 29      ',        20, 2,    0,   18, 1,    1.033319,    1.207015,  1.1,  0.9,  1.1,  0.9
    30, 'BUS 30      ',       110, 1,    0,   22, 1,    1.014217,   -5.598531,  1.1,  0.9,  1.1,  0.9
    31, 'BUS 31      ',       220, 1,    0,    3, 1,    1.029519,   36.693892,  1.1,  0.9,  1.1,  0.9
    32, 'BUS 32      ',       380, 1,    0,    5, 1,    1.008442,   25.900391,  1.1,  0.9,  1.1,  0.9
    33, 'BUS 33      ',        20, 2,    0,    4, 1,    1.018631,  -11.528817,  1.1,  0.9,  1.1,  0.9
    34, 'BUS 34      ',       380, 1,    0,   13, 1,    1.050355,   40.500598,  1.1,  0.9,  1.1,  0.9
    35, 'BUS 35      ',       150, 1,    0,    9, 1,    1.009463,   -9.554155,  1.1,  0.9,  1.1,  0.9
    36, 'BUS 36      ',       380, 1,    0,    5, 1,    0.978505,   14.001978,  1.1,  0.9,  1.1,  0.9
    37, 'BUS 37      ',       150, 1,    0,    9, 1,    1.027858,   -7.880552,  1.1,  0.9,  1.1,  0.9
    38, 'BUS 38      ',       150, 1,    0,    9, 1,    0.914844,  -11.630868,  1.1,  0.9,  1.1,  0.9
    39, 'BUS 39      ',        20, 2,    0,    9, 1,    1.073284,      1.2557,  1.1,  0.9,  1.1,  0.9
    40, 'BUS 40      ',       220, 1,    0,    4, 1,    1.002842,  -15.045231,  1.1,  0.9,  1.1,  0.9
    41, 'BUS 41      ',       220, 1,    0,    4, 1,    1.020848,  -10.580356,  1.1,  0.9,  1.1,  0.9
    42, 'BUS 42      ',        11, 2,    0,    1, 1,    0.985213,   28.561806,  1.1,  0.9,  1.1,  0.9
    43, 'BUS 43      ',       110, 1,    0,   19, 1,    1.021293,   -2.929459,  1.1,  0.9,  1.1,  0.9
    44, 'BUS 44      ',       110, 1,    0,   12, 1,    0.990534,  -11.414462,  1.1,  0.9,  1.1,  0.9
    45, 'BUS 45      ',        20, 2,    0,    4, 1,    1.012099,  -18.860818,  1.1,  0.9,  1.1,  0.9
    46, 'BUS 46      ',       220, 1,    0,   19, 1,    1.039103,    0.763772,  1.1,  0.9,  1.1,  0.9
    47, 'BUS 47      ',       110, 1,    0,   18, 1,      0.9757,   -6.904131,  1.1,  0.9,  1.1,  0.9
    48, 'BUS 48      ',       220, 1,    0,    8, 1,    1.049416,   58.695823,  1.1,  0.9,  1.1,  0.9
    49, 'BUS 49      ',       150, 1,    0,   10, 1,    0.998825,  -10.375539,  1.1,  0.9,  1.1,  0.9
    50, 'BUS 50      ',       110, 1,    0,   23, 1,    0.983186,   -8.374635,  1.1,  0.9,  1.1,  0.9
    51, 'BUS 51      ',      14.4, 2,    0,    1, 1,    1.011416,   44.498643,  1.1,  0.9,  1.1,  0.9
    52, 'BUS 52      ',       154, 1,    0,    1, 1,    0.988125,   16.109775,  1.1,  0.9,  1.1,  0.9
    53, 'BUS 53      ',       380, 1,    0,    4, 1,    1.016129,  -21.455497,  1.1,  0.9,  1.1,  0.9
    54, 'BUS 54      ',        20, 2,    0,   14, 1,    1.021005,   21.987746,  1.1,  0.9,  1.1,  0.9
    55, 'BUS 55      ',       220, 1,    0,    5, 1,    1.036171,    8.177694,  1.1,  0.9,  1.1,  0.9
    56, 'BUS 56      ',       110, 1,    0,   19, 1,     1.04206,   -2.933811,  1.1,  0.9,  1.1,  0.9
    57, 'BUS 57      ',       110, 1,    0,   18, 1,    0.954805,   -6.844584,  1.1,  0.9,  1.1,  0.9
    58, 'BUS 58      ',       110, 1,    0,   18, 1,    0.981092,   -5.140628,  1.1,  0.9,  1.1,  0.9
    59, 'BUS 59      ',       110, 1,    0,   15, 1,    1.038133,    -3.37057,  1.1,  0.9,  1.1,  0.9
    60, 'BUS 60      ',       220, 1,    0,    6, 1,    1.006337,   -6.766633,  1.1,  0.9,  1.1,  0.9
    61, 'BUS 61      ',       380, 1,    0,    2, 1,    1.047066,    36.05057,  1.1,  0.9,  1.1,  0.9
    62, 'BUS 62      ',        20, 2,    0,    5, 1,    1.058268,   15.875889,  1.1,  0.9,  1.1,  0.9
    63, 'BUS 63      ',        20, 2,    0,    5, 1,    1.058268,   15.875889,  1.1,  0.9,  1.1,  0.9
    64, 'BUS 64      ',       220, 1,    0,    4, 1,    1.009945,  -20.345542,  1.1,  0.9,  1.1,  0.9
    65, 'BUS 65      ',       150, 1,    0,    8, 1,     0.99193,   25.086276,  1.1,  0.9,  1.1,  0.9
    66, 'BUS 66      ',        20, 2,    0,   22, 1,    1.034768,    8.492541,  1.1,  0.9,  1.1,  0.9
    67, 'BUS 67      ',       110, 1,    0,   21, 1,    0.975466,   -6.422787,  1.1,  0.9,  1.1,  0.9
    68, 'BUS 68      ',        20, 2,    0,    4, 1,    1.035023,  -10.739655,  1.1,  0.9,  1.1,  0.9
    69, 'BUS 69      ',        20, 2,    0,    4, 1,    1.035023,  -10.739655,  1.1,  0.9,  1.1,  0.9
    70, 'BUS 70      ',       220, 1,    0,    6, 1,    1.007417,   -5.990692,  1.1,  0.9,  1.1,  0.9
    71, 'BUS 71      ',        20, 1,    0,    5, 1,      1.0206,   13.215214,  1.1,  0.9,  1.1,  0.9
    72, 'BUS 72      ',        20, 1,    0,    5, 1,      1.0206,   13.215214,  1.1,  0.9,  1.1,  0.9
    73, 'BUS 73      ',       220, 1,    0,    3, 1,    0.993601,   33.018065,  1.1,  0.9,  1.1,  0.9
    74, 'BUS 74      ',        20, 1,    0,    5, 1,    1.024981,   18.183447,  1.1,  0.9,  1.1,  0.9
    75, 'BUS 75      ',        20, 1,    0,    5, 1,    1.024981,   18.183447,  1.1,  0.9,  1.1,  0.9
    76, 'BUS 76      ',        20, 1,    0,    5, 1,    1.024981,   18.183447,  1.1,  0.9,  1.1,  0.9
    77, 'BUS 77      ',        20, 2,    0,    5, 1,    1.038344,   11.554722,  1.1,  0.9,  1.1,  0.9
    78, 'BUS 78      ',        20, 2,    0,    5, 1,    1.027383,   17.740146,  1.1,  0.9,  1.1,  0.9
    79, 'BUS 79      ',        20, 2,    0,    5, 1,    1.016716,   24.455607,  1.1,  0.9,  1.1,  0.9
    80, 'BUS 80      ',       220, 1,    0,    3, 1,    1.009229,   11.978416,  1.1,  0.9,  1.1,  0.9
    81, 'BUS 81      ',       154, 1,    0,    1, 1,    0.990476,   15.061407,  1.1,  0.9,  1.1,  0.9
    82, 'BUS 82      ',       380, 1,    0,    5, 1,    1.005323,    7.725281,  1.1,  0.9,  1.1,  0.9
    83, 'BUS 83      ',       220, 1,    0,    5, 1,     1.01756,    5.059048,  1.1,  0.9,  1.1,  0.9
    84, 'BUS 84      ',       110, 1,    0,   22, 1,    0.989474,  -14.141367,  1.1,  0.9,  1.1,  0.9
    85, 'BUS 85      ',       110, 1,    0,   18, 1,    1.024209,    3.944647,  1.1,  0.9,  1.1,  0.9
    86, 'BUS 86      ',        20, 2,    0,    6, 1,    1.023881,   -4.354948,  1.1,  0.9,  1.1,  0.9
    87, 'BUS 87      ',        20, 1,    0,    6, 1,    1.014629,   -9.004047,  1.1,  0.9,  1.1,  0.9
    88, 'BUS 88      ',        20, 1,    0,    6, 1,    1.014629,   -9.004047,  1.1,  0.9,  1.1,  0.9
    89, 'BUS 89      ',       380, 1,    0,    3, 1,    1.067567,   73.239254,  1.1,  0.9,  1.1,  0.9
    90, 'BUS 90      ',       110, 1,    0,   18, 1,    0.965658,   -5.045088,  1.1,  0.9,  1.1,  0.9
    91, 'BUS 91      ',       380, 1,    0,    3, 1,    1.016938,   32.836298,  1.1,  0.9,  1.1,  0.9
    92, 'BUS 92      ',       110, 1,    0,   15, 1,     1.05599,   -0.961794,  1.1,  0.9,  1.1,  0.9
    93, 'BUS 93      ',       150, 1,    0,    9, 1,    0.929361,  -10.259554,  1.1,  0.9,  1.1,  0.9
    94, 'BUS 94      ',        11, 2,    0,    1, 1,    1.022611,   22.294732,  1.1,  0.9,  1.1,  0.9
    95, 'BUS 95      ',       110, 1,    0,   19, 1,    0.989635,   -2.082376,  1.1,  0.9,  1.1,  0.9
    96, 'BUS 96      ',        20, 2,    0,    4, 1,    1.043225,   -4.501166,  1.1,  0.9,  1.1,  0.9
    97, 'BUS 97      ',        20, 2,    0,    4, 1,    1.043225,   -4.501166,  1.1,  0.9,  1.1,  0.9
    98, 'BUS 98      ',        20, 2,    0,    4, 1,    1.043225,   -4.501166,  1.1,  0.9,  1.1,  0.9
    99, 'BUS 99      ',        20, 2,    0,    4, 1,    1.031885,  -12.651409,  1.1,  0.9,  1.1,  0.9
   100, 'BUS 100     ',        20, 2,    0,    4, 1,    1.031885,  -12.651409,  1.1,  0.9,  1.1,  0.9
   101, 'BUS 101     ',        20, 2,    0,    4, 1,    1.043225,   -4.501166,  1.1,  0.9,  1.1,  0.9
   102, 'BUS 102     ',        20, 2,    0,    4, 1,    1.043225,   -4.501166,  1.1,  0.9,  1.1,  0.9
   103, 'BUS 103     ',       150, 1,    0,    8, 1,    0.989544,   23.826254,  1.1,  0.9,  1.1,  0.9
   104, 'BUS 104     ',        20, 2,    0,    3, 1,    1.052257,   44.731305,  1.1,  0.9,  1.1,  0.9
   105, 'BUS 105     ',       380, 1,    0,    9, 1,    1.141691,    0.929631,  1.2,  0.8,  1.2,  0.8
   106, 'BUS 106     ',       150, 1,    0,    8, 1,    1.033923,    30.21213,  1.1,  0.9,  1.1,  0.9
   107, 'BUS 107     ',        20, 2,    0,    3, 1,    1.028153,   78.700831,  1.1,  0.9,  1.1,  0.9
   108, 'BUS 108     ',       220, 1,    0,    4, 1,     1.02024,  -13.484638,  1.1,  0.9,  1.1,  0.9
   109, 'BUS 109     ',       110, 1,    0,   12, 1,     0.99755,  -13.611914,  1.1,  0.9,  1.1,  0.9
   110, 'BUS 110     ',        20, 2,    0,    3, 1,    1.051233,   87.799236,  1.1,  0.9,  1.1,  0.9
   111, 'BUS 111     ',       110, 1,    0,   23, 1,    1.040632,   -1.700832,  1.1,  0.9,  1.1,  0.9
   112, 'BUS 112     ',       220, 1,    0,    4, 1,    1.014811,  -25.695432,  1.1,  0.9,  1.1,  0.9
   113, 'BUS 113     ',       220, 1,    0,    8, 1,    1.049481,   58.705166,  1.1,  0.9,  1.1,  0.9
   114, 'BUS 114     ',        20, 2,    0,    4, 1,    1.030832,   -9.752509,  1.1,  0.9,  1.1,  0.9
   115, 'BUS 115     ',        20, 2,    0,   10, 1,       1.019,   -2.975058,  1.1,  0.9,  1.1,  0.9
   116, 'BUS 116     ',       220, 1,    0,    4, 1,     1.01569,  -23.117496,  1.1,  0.9,  1.1,  0.9
   117, 'BUS 117     ',       110, 1,    0,   18, 1,     0.98256,    1.655497,  1.1,  0.9,  1.1,  0.9
   118, 'BUS 118     ',       380, 1,    0,    3, 1,    1.005586,   39.420522,  1.1,  0.9,  1.1,  0.9
   119, 'BUS 119     ',       220, 1,    0,   23, 1,    1.047225,   -3.097806,  1.1,  0.9,  1.1,  0.9
   120, 'BUS 120     ',       150, 1,    0,    1, 1,    0.992206,   88.681174,  1.1,  0.9,  1.1,  0.9
   121, 'BUS 121     ',        20, 2,    0,   14, 1,    1.045359,   10.101302,  1.1,  0.9,  1.1,  0.9
   122, 'BUS 122     ',       220, 1,    0,    3, 1,    0.989992,   37.681252,  1.1,  0.9,  1.1,  0.9
   123, 'BUS 123     ',       380, 1,    0,    1, 1,    1.015598,   45.599895,  1.1,  0.9,  1.1,  0.9
   124, 'BUS 124     ',       110, 1,    0,   19, 1,    1.046082,   -0.185974,  1.1,  0.9,  1.1,  0.9
   125, 'BUS 125     ',       154, 1,    0,    1, 1,    0.979547,   43.485266,  1.1,  0.9,  1.1,  0.9
   126, 'BUS 126     ',       150, 1,    0,    9, 1,    1.054143,   -2.947678,  1.1,  0.9,  1.1,  0.9
   127, 'BUS 127     ',       110, 1,    0,   18, 1,    1.015831,    7.375377,  1.1,  0.9,  1.1,  0.9
   128, 'BUS 128     ',       220, 1,    0,    6, 1,    0.992515,   -4.018187,  1.1,  0.9,  1.1,  0.9
   129, 'BUS 129     ',       380, 1,    0,    2, 1,    0.992133,   32.281513,  1.1,  0.9,  1.1,  0.9
   130, 'BUS 130     ',       220, 1,    0,    5, 1,    1.032584,    1.551181,  1.1,  0.9,  1.1,  0.9
   131, 'BUS 131     ',       380, 1,    0,    3, 1,     1.01593,   31.223648,  1.1,  0.9,  1.1,  0.9
   132, 'BUS 132     ',        11, 2,    0,    1, 1,    0.996117,   32.042491,  1.1,  0.9,  1.1,  0.9
   133, 'BUS 133     ',        20, 2,    0,   14, 1,    1.042317,   14.274354,  1.1,  0.9,  1.1,  0.9
   134, 'BUS 134     ',        20, 2,    0,    4, 1,    1.044129,   -4.738961,  1.1,  0.9,  1.1,  0.9
   135, 'BUS 135     ',        20, 2,    0,    4, 1,    1.030832,   -9.752509,  1.1,  0.9,  1.1,  0.9
   136, 'BUS 136     ',        20, 2,    0,    3, 1,    1.049674,   87.363329,  1.1,  0.9,  1.1,  0.9
   137, 'BUS 137     ',       110, 1,    0,   19, 1,    1.033716,    0.043737,  1.1,  0.9,  1.1,  0.9
   138, 'BUS 138     ',       110, 1,    0,   19, 1,    0.998323,   -1.616561,  1.1,  0.9,  1.1,  0.9
   139, 'BUS 139     ',       150, 1,    0,    9, 1,    0.982498,   -8.529449,  1.1,  0.9,  1.1,  0.9
   140, 'BUS 140     ',       220, 1,    0,    5, 1,    1.007093,   11.733465,  1.1,  0.9,  1.1,  0.9
   141, 'BUS 141     ',       220, 1,    0,    3, 1,    1.086033,   24.723865,  1.2,  0.8,  1.2,  0.8
   142, 'BUS 142     ',       380, 1,    0,    6, 1,    1.010147,     0.04267,  1.1,  0.9,  1.1,  0.9
   143, 'BUS 143     ',       150, 1,    0,    9, 1,    1.041468,    -6.86067,  1.1,  0.9,  1.1,  0.9
   144, 'BUS 144     ',        20, 2,    0,   14, 1,    1.034631,    4.683321,  1.1,  0.9,  1.1,  0.9
   145, 'BUS 145     ',        20, 2,    0,    5, 1,    1.040587,   38.218788,  1.1,  0.9,  1.1,  0.9
   146, 'BUS 146     ',        20, 2,    0,    5, 1,    1.044313,   37.077846,  1.1,  0.9,  1.1,  0.9
   147, 'BUS 147     ',        20, 2,    0,    5, 1,    1.044313,   37.077846,  1.1,  0.9,  1.1,  0.9
   148, 'BUS 148     ',       380, 1,    0,    3, 1,     1.01726,    31.78152,  1.1,  0.9,  1.1,  0.9
   149, 'BUS 149     ',       220, 1,    0,    6, 1,    0.998552,  -23.031405,  1.1,  0.9,  1.1,  0.9
   150, 'BUS 150     ',       150, 1,    0,    9, 1,    1.035657,   -6.436529,  1.1,  0.9,  1.1,  0.9
   151, 'BUS 151     ',      13.8, 2,    0,    1, 1,    1.023215,   19.248221,  1.1,  0.9,  1.1,  0.9
   152, 'BUS 152     ',       220, 1,    0,    6, 1,    0.957631,  -29.999659,  1.1,  0.9,  1.1,  0.9
   153, 'BUS 153     ',        20, 2,    0,   14, 1,    1.027348,   16.396901,  1.1,  0.9,  1.1,  0.9
   154, 'BUS 154     ',        20, 2,    0,    3, 1,     1.05252,   75.282812,  1.1,  0.9,  1.1,  0.9
   155, 'BUS 155     ',       380, 1,    0,    6, 1,    1.018112,   -4.652605,  1.1,  0.9,  1.1,  0.9
   156, 'BUS 156     ',        20, 2,    0,    6, 1,    1.034597,   19.022639,  1.1,  0.9,  1.1,  0.9
   157, 'BUS 157     ',       380, 1,    0,    6, 1,    0.997201,  -11.924333,  1.1,  0.9,  1.1,  0.9
   158, 'BUS 158     ',       220, 1,    0,    5, 1,    1.030319,   13.564017,  1.1,  0.9,  1.1,  0.9
   159, 'BUS 159     ',       110, 1,    0,   18, 1,    1.003488,    6.243881,  1.1,  0.9,  1.1,  0.9
   160, 'BUS 160     ',       154, 1,    0,    1, 1,    1.005167,   12.788654,  1.1,  0.9,  1.1,  0.9
   161, 'BUS 161     ',        20, 2,    0,    6, 1,    1.034597,   19.022639,  1.1,  0.9,  1.1,  0.9
   162, 'BUS 162     ',        20, 2,    0,    6, 1,    1.034597,   19.022639,  1.1,  0.9,  1.1,  0.9
   163, 'BUS 163     ',       150, 1,    0,    9, 1,    0.998875,   -9.905754,  1.1,  0.9,  1.1,  0.9
   164, 'BUS 164     ',       220, 1,    0,   11, 1,    1.048414,    5.258031,  1.1,  0.9,  1.1,  0.9
   165, 'BUS 165     ',        20, 2,    0,    4, 1,    1.030832,   -9.752509,  1.1,  0.9,  1.1,  0.9
   166, 'BUS 166     ',       220, 1,    0,    3, 1,    1.069303,   18.198045,  1.1,  0.9,  1.1,  0.9
   167, 'BUS 167     ',       380, 1,    0,    5, 1,    1.025278,   15.598401,  1.1,  0.9,  1.1,  0.9
   168, 'BUS 168     ',       154, 1,    0,    1, 1,    0.982808,   36.169129,  1.1,  0.9,  1.1,  0.9
   169, 'BUS 169     ',       220, 1,    0,    5, 1,    1.043196,   10.569078,  1.1,  0.9,  1.1,  0.9
   170, 'BUS 170     ',       110, 1,    0,   19, 1,    0.963316,   -5.114898,  1.1,  0.9,  1.1,  0.9
   171, 'BUS 171     ',       150, 1,    0,    9, 1,    1.004078,   -8.960914,  1.1,  0.9,  1.1,  0.9
   172, 'BUS 172     ',       110, 1,    0,   18, 1,    0.954773,   -7.079414,  1.1,  0.9,  1.1,  0.9
   173, 'BUS 173     ',       150, 1,    0,    9, 1,    1.071275,    1.379824,  1.1,  0.9,  1.1,  0.9
   174, 'BUS 174     ',       110, 1,    0,    1, 1,    0.982878,  -10.227511,  1.1,  0.9,  1.1,  0.9
   175, 'BUS 175     ',       110, 1,    0,   15, 1,    1.055172,   -2.479395,  1.1,  0.9,  1.1,  0.9
   176, 'BUS 176     ',       220, 1,    0,    3, 1,    0.995048,   32.610865,  1.1,  0.9,  1.1,  0.9
   177, 'BUS 177     ',       220, 1,    0,   11, 1,    1.045733,     7.66394,  1.1,  0.9,  1.1,  0.9
   178, 'BUS 178     ',       220, 1,    0,    5, 1,    1.066307,   38.390318,  1.1,  0.9,  1.1,  0.9
   179, 'BUS 179     ',        20, 2,    0,    4, 1,    1.023144,   -9.538309,  1.1,  0.9,  1.1,  0.9
   180, 'BUS 180     ',       110, 1,    0,   21, 1,    0.938533,   -9.006406,  1.1,  0.9,  1.1,  0.9
   181, 'BUS 181     ',        20, 1,    0,   14, 1,    1.020557,    9.624602,  1.1,  0.9,  1.1,  0.9
   182, 'BUS 182     ',        20, 2,    0,   20, 1,    1.054937,    4.624127,  1.1,  0.9,  1.1,  0.9
   183, 'BUS 183     ',       220, 1,    0,    6, 1,    1.005985,    0.980119,  1.1,  0.9,  1.1,  0.9
   184, 'BUS 184     ',       220, 1,    0,    5, 1,    1.018182,   14.939378,  1.1,  0.9,  1.1,  0.9
   185, 'BUS 185     ',       220, 1,    0,    3, 1,     1.01375,   15.934135,  1.1,  0.9,  1.1,  0.9
   186, 'BUS 186     ',       380, 1,    0,   10, 1,    1.043206,  -19.578893,  1.1,  0.9,  1.1,  0.9
   187, 'BUS 187     ',       110, 1,    0,   22, 1,      1.0253,  -13.383559,  1.1,  0.9,  1.1,  0.9
   188, 'BUS 188     ',        20, 1,    0,    4, 1,    1.021419,   -22.29244,  1.1,  0.9,  1.1,  0.9
   189, 'BUS 189     ',       380, 1,    0,    1, 1,    1.043162,  -16.102529,  1.1,  0.9,  1.1,  0.9
   190, 'BUS 190     ',       150, 1,    0,    8, 1,    1.000545,   26.619584,  1.1,  0.9,  1.1,  0.9
   191, 'BUS 191     ',       400, 1,    0,    1, 1,    0.973826,   31.884786,  1.1,  0.9,  1.1,  0.9
   192, 'BUS 192     ',       220, 1,    0,    7, 1,    1.007461,    6.385629,  1.1,  0.9,  1.1,  0.9
   193, 'BUS 193     ',       110, 1,    0,   12, 1,    0.982641,  -11.113148,  1.1,  0.9,  1.1,  0.9
   194, 'BUS 194     ',       150, 1,    0,    1, 1,    0.983941,   88.980027,  1.1,  0.9,  1.1,  0.9
   195, 'BUS 195     ',       380, 1,    0,   10, 1,    1.058902,  -14.107366,  1.1,  0.9,  1.1,  0.9
   196, 'BUS 196     ',        20, 2,    0,    6, 1,    1.021915,   -9.376379,  1.1,  0.9,  1.1,  0.9
   197, 'BUS 197     ',        20, 2,    0,    4, 1,    1.005341,   -1.941399,  1.1,  0.9,  1.1,  0.9
   198, 'BUS 198     ',       220, 1,    0,    6, 1,    1.002832,    0.458665,  1.1,  0.9,  1.1,  0.9
   199, 'BUS 199     ',       220, 1,    0,    8, 1,    1.012917,    48.51202,  1.1,  0.9,  1.1,  0.9
   200, 'BUS 200     ',       220, 1,    0,   13, 1,    0.982261,   24.304858,  1.1,  0.9,  1.1,  0.9
...
0 / END OF BUS DATA, BEGIN LOAD DATA
     2,  1, 1,    0,    9,     72.68,        45, 0, 0, 0, 0, 1, 1, 0
     3,  1, 1,    0,    6,     378.4,      98.5, 0, 0, 0, 0, 1, 1, 0
     4,  1, 1,    0,    1,       134,      19.1, 0, 0, 0, 0, 1, 1, 0
     5,  1, 1,    0,    5,       151,      48.8, 0, 0, 0, 0, 1, 1, 0
     6,  1, 1,    0,    5,    171.41,      23.4, 0, 0, 0, 0, 1, 1, 0
     7,  1, 1,    0,    6,     45.95,        14, 0, 0, 0, 0, 1, 1, 0
     8,  1, 1,    0,    6,     343.4,      53.1, 0, 0, 0, 0, 1, 1, 0
    10,  1, 1,    0,   21,     31.03,      10.3, 0, 0, 0, 0, 1, 1, 0
    13,  1, 1,    0,    1,      14.3,         2, 0, 0, 0, 0, 1, 1, 0
    14,  1, 1,    0,    5,       134,      24.7, 0, 0, 0, 0, 1, 1, 0
    16,  1, 1,    0,    9,     -6.11,         2, 0, 0, 0, 0, 1, 1, 0
    17,  1, 1,    0,    6,    -22.74,     -8.32, 0, 0, 0, 0, 1, 1, 0
    19,  1, 1,    0,    4,     59.67,      26.7, 0, 0, 0, 0, 1, 1, 0
    20,  1, 1,    0,    1,      30.6,       4.3, 0, 0, 0, 0, 1, 1, 0
    22,  1, 1,    0,    3,     67.67,      12.1, 0, 0, 0, 0, 1, 1, 0
    24,  1, 1,    0,   12,     25.33,       7.5, 0, 0, 0, 0, 1, 1, 0
    25,  1, 1,    0,    1,       1.4,       0.2, 0, 0, 0, 0, 1, 1, 0
    26,  1, 1,    0,    5,     161.2,      39.3, 0, 0, 0, 0, 1, 1, 0
    28,  1, 1,    0,   19,     19.62,       7.1, 0, 0, 0, 0, 1, 1, 0
    30,  1, 1,    0,   22,     31.94,       8.8, 0, 0, 0, 0, 1, 1, 0
    32,  1, 1,    0,    5,     167.3,      54.8, 0, 0, 0, 0, 1, 1, 0
    36,  1, 1,    0,    5,     152.9,      49.4, 0, 0, 0, 0, 1, 1, 0
    38,  1, 1,    0,    9,     69.68,      43.2, 0, 0, 0, 0, 1, 1, 0
    43,  1, 1,    0,   19,     13.51,       4.9, 0, 0, 0, 0, 1, 1, 0
    44,  1, 1,    0,   12,     10.51,       3.5, 0, 0, 0, 0, 1, 1, 0
    47,  1, 1,    0,   18,      9.21,       2.6, 0, 0, 0, 0, 1, 1, 0
    48,  1, 1,    0,    8,     42.75,      12.8, 0, 0, 0, 0, 1, 1, 0
    50,  1, 1,    0,   23,     16.02,      4.54, 0, 0, 0, 0, 1, 1, 0
    52,  1, 1,    0,    1,      27.9,         4, 0, 0, 0, 0, 1, 1, 0
    53,  1, 1,    0,    4,     20.82,       7.9, 0, 0, 0, 0, 1, 1, 0
    56,  1, 1,    0,   19,     10.11,       3.7, 0, 0, 0, 0, 1, 1, 0
    57,  1, 1,    0,   18,     10.01,       2.7, 0, 0, 0, 0, 1, 1, 0
    58,  1, 1,    0,   18,      6.31,        -0, 0, 0, 0, 0, 1, 1, 0
    59,  1, 1,    0,   15,       2.9,       0.9, 0, 0, 0, 0, 1, 1, 0
    64,  1, 1,    0,    4,     151.8,      48.3, 0, 0, 0, 0, 1, 1, 0
    65,  1, 1,    0,    8,     127.6,      31.8, 0, 0, 0, 0, 1, 1, 0
    70,  1, 1,    0,    6,     110.5,     -26.8, 0, 0, 0, 0, 1, 1, 0
    80,  1, 1,    0,    3,       140,      79.7, 0, 0, 0, 0, 1, 1, 0
    81,  1, 1,    0,    1,      21.6,         3, 0, 0, 0, 0, 1, 1, 0
    83,  1, 1,    0,    5,     119.2,      20.7, 0, 0, 0, 0, 1, 1, 0
    84,  1, 1,    0,   22,     26.43,       9.9, 0, 0, 0, 0, 1, 1, 0
    85,  1, 1,    0,   18,      0.24,     -1.66, 0, 0, 0, 0, 1, 1, 0
    91,  1, 1,    0,    3,     187.9,     110.2, 0, 0, 0, 0, 1, 1, 0
    92,  1, 1,    0,   15,     14.92,       5.5, 0, 0, 0, 0, 1, 1, 0
    93,  1, 1,    0,    9,    -18.52,       6.1, 0, 0, 0, 0, 1, 1, 0
    95,  1, 1,    0,   19,      4.61,       1.7, 0, 0, 0, 0, 1, 1, 0
   103,  1, 1,    0,    8,     62.87,      20.5, 0, 0, 0, 0, 1, 1, 0
   105,  1, 1,    0,    9,      13.5,      14.8, 0, 0, 0, 0, 1, 1, 0
   106,  1, 1,    0,    8,     126.3,      42.4, 0, 0, 0, 0, 1, 1, 0
   108,  1, 1,    0,    4,      6.91,      -4.6, 0, 0, 0, 0, 1, 1, 0
   109,  1, 1,    0,   12,     15.72,       5.2, 0, 0, 0, 0, 1, 1, 0
   111,  1, 1,    0,   23,     16.12,       4.3, 0, 0, 0, 0, 1, 1, 0
   112,  1, 1,    0,    4,     38.74,       6.1, 0, 0, 0, 0, 1, 1, 0
   113,  1, 1,    0,    8,     22.13,      10.7, 0, 0, 0, 0, 1, 1, 0
   118,  1, 1,    0,    3,     138.8,     136.7, 0, 0, 0, 0, 1, 1, 0
   119,  1, 1,    0,   23,     137.3,      66.4, 0, 0, 0, 0, 1, 1, 0
   120,  1, 1,    0,    1,     67.76,     19.18, 0, 0, 0, 0, 1, 1, 0
   124,  1, 1,    0,   19,         1,       0.3, 0, 0, 0, 0, 1, 1, 0
   125,  1, 1,    0,    1,      20.9,         3, 0, 0, 0, 0, 1, 1, 0
   127,  1, 1,    0,   18,     21.52,       5.1, 0, 0, 0, 0, 1, 1, 0
   128,  1, 1,    0,    6,     71.98,      28.8, 0, 0, 0, 0, 1, 1, 0
   130,  1, 1,    0,    5,    363.25,    115.39, 0, 0, 0, 0, 1, 1, 0
   131,  1, 1,    0,    3,     192.9,      73.3, 0, 0, 0, 0, 1, 1, 0
   137,  1, 1,    0,   19,     17.52,       6.3, 0, 0, 0, 0, 1, 1, 0
   138,  1, 1,    0,   19,     33.14,        12, 0, 0, 0, 0, 1, 1, 0
   139,  1, 1,    0,    9,     40.44,        25, 0, 0, 0, 0, 1, 1, 0
   140,  1, 1,    0,    5,    193.17,     53.37, 0, 0, 0, 0, 1, 1, 0
   141,  1, 1,    0,    3,      90.7,      25.5, 0, 0, 0, 0, 1, 1, 0
   142,  1, 1,    0,    6,     176.3,     -58.9, 0, 0, 0, 0, 1, 1, 0
   143,  1, 1,    0,    9,     35.94,      22.3, 0, 0, 0, 0, 1, 1, 0
   148,  1, 1,    0,    3,     143.9,     123.2, 0, 0, 0, 0, 1, 1, 0
   152,  1, 1,    0,    6,     51.36,      -8.8, 0, 0, 0, 0, 1, 1, 0
   157,  1, 1,    0,    6,     322.7,      11.9, 0, 0, 0, 0, 1, 1, 0
   158,  1, 1,    0,    5,     303.6,      79.8, 0, 0, 0, 0, 1, 1, 0
   159,  1, 1,    0,   18,       3.8,       1.3, 0, 0, 0, 0, 1, 1, 0
   160,  1, 1,    0,    1,       137,      19.5, 0, 0, 0, 0, 1, 1, 0
   164,  1, 1,    0,   11,     61.07,        36, 0, 0, 0, 0, 1, 1, 0
   168,  1, 1,    0,    1,      55.7,       7.9, 0, 0, 0, 0, 1, 1, 0
   170,  1, 1,    0,   19,       1.8,       0.7, 0, 0, 0, 0, 1, 1, 0
   172,  1, 1,    0,   18,       2.5,         0, 0, 0, 0, 0, 1, 1, 0
   174,  1, 1,    0,    1,     38.94,        11, 0, 0, 0, 0, 1, 1, 0
   175,  1, 1,    0,   15,     45.15,      14.1, 0, 0, 0, 0, 1, 1, 0
   180,  1, 1,    0,   21,     17.22,       5.7, 0, 0, 0, 0, 1, 1, 0
   184,  1, 1,    0,    5,     23.73,      12.7, 0, 0, 0, 0, 1, 1, 0
   185,  1, 1,    0,    3,     121.9,       7.4, 0, 0, 0, 0, 1, 1, 0
   187,  1, 1,    0,   22,     47.35,      16.4, 0, 0, 0, 0, 1, 1, 0
   190,  1, 1,    0,    8,     38.14,      12.5, 0, 0, 0, 0, 1, 1, 0
   191,  1, 1,    0,    1,      54.2,       7.8, 0, 0, 0, 0, 1, 1, 0
   192,  1, 1,    0,    7,     130.6,      84.9, 0, 0, 0, 0, 1, 1, 0
   193,  1, 1,    0,   12,      7.91,       2.6, 0, 0, 0, 0, 1, 1, 0
   194,  1, 1,    0,    1,      42.1,     74.61, 0, 0, 0, 0, 1, 1, 0
   195,  1, 1,    0,   10,    -75.38,       7.8, 0, 0, 0, 0, 1, 1, 0
   198,  1, 1,    0,    6,     41.05,      14.3, 0, 0, 0, 0, 1, 1, 0
   200,  1, 1,    0,   13,     100.9,      49.3, 0, 0, 0, 0, 1, 1, 0
   205,  1, 1,    0,    4,       2.8,     264.7, 0, 0, 0, 0, 1, 1, 0
   206,  1, 1,    0,    5,     38.34,       5.6, 0, 0, 0, 0, 1, 1, 0
   208,  1, 1,    0,   20,     269.6,      65.7, 0, 0, 0, 0, 1, 1, 0
   209,  1, 1,    0,    8,     -8.71,    -19.54, 0, 0, 0, 0, 1, 1, 0
   210,  1, 1,    0,    7,       160,       3.3, 0, 0, 0, 0, 1, 1, 0
   211,  1, 1,    0,    5,     32.34,        12, 0, 0, 0, 0, 1, 1, 0
   212,  1, 1,    0,    6,     100.1,      45.1, 0, 0, 0, 0, 1, 1, 0
   213,  1, 1,    0,    5,     12.31,       3.9, 0, 0, 0, 0, 1, 1, 0
   214,  1, 1,    0,    1,    131.75,     24.35, 0, 0, 0, 0, 1, 1, 0
   226,  1, 1,    0,   19,      9.21,       3.3, 0, 0, 0, 0, 1, 1, 0
   228,  1, 1,    0,    3,       166,      60.3, 0, 0, 0, 0, 1, 1, 0
   231,  1, 1,    0,    1,      79.4,      11.3, 0, 0, 0, 0, 1, 1, 0
   234,  1, 1,    0,    3,   -597.44,   -326.86, 0, 0, 0, 0, 1, 1, 0
   235,  1, 1,    0,    5,    147.76,     32.73, 0, 0, 0, 0, 1, 1, 0
   237,  1, 1,    0,    9,      26.8,      -3.7, 0, 0, 0, 0, 1, 1, 0
   239,  1, 1,    0,    3,     257.5,     131.1, 0, 0, 0, 0, 1, 1, 0
   240,  1, 1,    0,    1,      16.7,       2.4, 0, 0, 0, 0, 1, 1, 0
   244,  1, 1,    0,    5,     100.8,      13.2, 0, 0, 0, 0, 1, 1, 0
   245,  1, 1,    0,    4,     111.7,     10.96, 0, 0, 0, 0, 1, 1, 0
   246,  1, 1,    0,   13,     90.38,     -5.05, 0, 0, 0, 0, 1, 1, 0
   247,  1, 1,    0,    5,     370.5,       -17, 0, 0, 0, 0, 1, 1, 0
   249,  1, 1,    0,   11,     41.05,       -46, 0, 0, 0, 0, 1, 1, 0
   251,  1, 1,    0,   12,      9.91,       3.2, 0, 0, 0, 0, 1, 1, 0
   252,  1, 1,    0,    9,     -0.69,     -5.46, 0, 0, 0, 0, 1, 1, 0
   253,  1, 1,    0,    4,     55.46,       8.4, 0, 0, 0, 0, 1, 1, 0
   254,  1, 1,    0,   10,      94.9,      36.2, 0, 0, 0, 0, 1, 1, 0
   255,  1, 1,    0,    9,     81.09,        48, 0, 0, 0, 0, 1, 1, 0
   257,  1, 1,    0,    4,     210.4,     159.2, 0, 0, 0, 0, 1, 1, 0
   260,  1, 1,    0,    3,     19.32,        26, 0, 0, 0, 0, 1, 1, 0
   261,  1, 1,    0,    5,     29.83,       7.3, 0, 0, 0, 0, 1, 1, 0
   263,  1, 1,    0,    1,      20.9,         3, 0, 0, 0, 0, 1, 1, 0
   264,  1, 1,    0,   21,     19.92,       6.6, 0, 0, 0, 0, 1, 1, 0
   265,  1, 1,    0,   22,     57.16,         2, 0, 0, 0, 0, 1, 1, 0
   267,  1, 1,    0,    5,     36.84,      13.9, 0, 0, 0, 0, 1, 1, 0
   268,  1, 1,    0,   18,    -15.04,     -5.12, 0, 0, 0, 0, 1, 1, 0
   269,  1, 1,    0,   19,      9.21,         6, 0, 0, 0, 0, 1, 1, 0
   277,  1, 1,    0,    3,     119.9,       3.7, 0, 0, 0, 0, 1, 1, 0
   281,  1, 1,    0,    5,     73.14,     21.55, 0, 0, 0, 0, 1, 1, 0
   285,  1, 1,    0,    5,     39.74,      11.8, 0, 0, 0, 0, 1, 1, 0
   286,  1, 1,    0,    4,     44.35,       5.1, 0, 0, 0, 0, 1, 1, 0
   287,  1, 1,    0,    8,      86.8,      28.4, 0, 0, 0, 0, 1, 1, 0
   288,  1, 1,    0,    4,     50.56,       5.9, 0, 0, 0, 0, 1, 1, 0
   291,  1, 1,    0,   14,     110.9,      32.7, 0, 0, 0, 0, 1, 1, 0
   292,  1, 1,    0,    1,      18.2,       2.6, 0, 0, 0, 0, 1, 1, 0
   295,  1, 1,    0,    8,     46.15,      18.2, 0, 0, 0, 0, 1, 1, 0
   297,  1, 1,    0,    4,     55.46,      15.7, 0, 0, 0, 0, 1, 1, 0
   298,  1, 1,    0,   19,     34.04,      12.3, 0, 0, 0, 0, 1, 1, 0
   300,  1, 1,    0,    5,    321.98,      84.4, 0, 0, 0, 0, 1, 1, 0
   301,  1, 1,    0,    5,     42.55,       8.2, 0, 0, 0, 0, 1, 1, 0
   302,  1, 1,    0,    3,     33.44,        10, 0, 0, 0, 0, 1, 1, 0
   313,  1, 1,    0,    3,    -24.99,     -4.94, 0, 0, 0, 0, 1, 1, 0
   314,  1, 1,    0,   13,     95.69,     24.54, 0, 0, 0, 0, 1, 1, 0
   316,  1, 1,    0,    1,     37.34,      10.9, 0, 0, 0, 0, 1, 1, 0
   317,  1, 1,    0,   13,       340,      93.8, 0, 0, 0, 0, 1, 1, 0
   319,  1, 1,    0,    5,     155.6,      54.7, 0, 0, 0, 0, 1, 1, 0
   320,  1, 1,    0,    5,     105.2,       0.1, 0, 0, 0, 0, 1, 1, 0
   321,  1, 1,    0,    5,     69.83,     15.12, 0, 0, 0, 0, 1, 1, 0
   327,  1, 1,    0,    1,     176.2,      20.8, 0, 0, 0, 0, 1, 1, 0
   329,  1, 1,    0,   21,     27.03,       8.8, 0, 0, 0, 0, 1, 1, 0
   335,  1, 1,    0,   12,     14.62,       4.8, 0, 0, 0, 0, 1, 1, 0
   340,  1, 1,    0,    4,     45.05,      -2.2, 0, 0, 0, 0, 1, 1, 0
   342,  1, 1,    0,    2,    -23.43,      57.4, 0, 0, 0, 0, 1, 1, 0
   343,  1, 1,    0,    6,     426.6,      93.7, 0, 0, 0, 0, 1, 1, 0
   344,  1, 1,    0,    4,    152.07,     22.52, 0, 0, 0, 0, 1, 1, 0
   348,  1, 1,    0,   18,       2.5,       3.8, 0, 0, 0, 0, 1, 1, 0
   349,  1, 1,    0,   19,     30.53,      10.9, 0, 0, 0, 0, 1, 1, 0
   350,  1, 1,    0,   22,     34.04,       4.4, 0, 0, 0, 0, 1, 1, 0
   352,  1, 1,    0,    4,     45.85,         7, 0, 0, 0, 0, 1, 1, 0
   355,  1, 1,    0,   19,     46.05,      16.9, 0, 0, 0, 0, 1, 1, 0
   359,  1, 1,    0,    3,   -876.96,   -325.87, 0, 0, 0, 0, 1, 1, 0
   366,  1, 1,    0,    3,     167.9,      18.2, 0, 0, 0, 0, 1, 1, 0
   371,  1, 1,    0,   21,     44.35,      14.8, 0, 0, 0, 0, 1, 1, 0
   372,  1, 1,    0,    1,     131.9,      31.1, 0, 0, 0, 0, 1, 1, 0
   374,  1, 1,    0,   13,     224.2,      73.9, 0, 0, 0, 0, 1, 1, 0
   376,  1, 1,    0,    3,     128.9,      73.7, 0, 0, 0, 0, 1, 1, 0
   380,  1, 1,    0,    1,     118.4,      16.9, 0, 0, 0, 0, 1, 1, 0
   390,  1, 1,    0,    4,     113.9,      24.5, 0, 0, 0, 0, 1, 1, 0
   391,  1, 1,    0,    1,        88,      12.6, 0, 0, 0, 0, 1, 1, 0
   393,  1, 1,    0,    9,     42.67,      12.1, 0, 0, 0, 0, 1, 1, 0
   399,  1, 1,    0,   13,     160.8,      10.6, 0, 0, 0, 0, 1, 1, 0
   401,  1, 1,    0,    4,     126.8,      21.4, 0, 0, 0, 0, 1, 1, 0
   402,  1, 1,    0,    1,      48.8,       6.9, 0, 0, 0, 0, 1, 1, 0
   403,  1, 1,    0,    4,     38.74,         9, 0, 0, 0, 0, 1, 1, 0
   404,  1, 1,    0,   11,     350.4,      29.3, 0, 0, 0, 0, 1, 1, 0
   407,  1, 1,    0,    4,     103.8,       2.7, 0, 0, 0, 0, 1, 1, 0
   409,  1, 1,    0,    8,     -0.13,        -1, 0, 0, 0, 0, 1, 1, 0
   412,  1, 1,    0,    2,      96.7,      26.8, 0, 0, 0, 0, 1, 1, 0
   416,  1, 1,    0,   21,     19.02,         6, 0, 0, 0, 0, 1, 1, 0
   417,  1, 1,    0,    8,     102.1,      25.3, 0, 0, 0, 0, 1, 1, 0
   420,  1, 1,    0,   18,     113.3,      30.2, 0, 0, 0, 0, 1, 1, 0
   421,  1, 1,    0,   19,      8.31,         3, 0, 0, 0, 0, 1, 1, 0
   422,  1, 1,    0,    5,     119.6,      29.6, 0, 0, 0, 0, 1, 1, 0
   425,  1, 1,    0,   18,      49.9,       144, 0, 0, 0, 0, 1, 1, 0
   426,  1, 1,    0,    5,     27.33,      11.9, 0, 0, 0, 0, 1, 1, 0
   427,  1, 1,    0,    4,     191.2,      -3.4, 0, 0, 0, 0, 1, 1, 0
   429,  1, 1,    0,    1,     101.6,      14.5, 0, 0, 0, 0, 1, 1, 0
   430,  1, 1,    0,   16,     177.1,      66.9, 0, 0, 0, 0, 1, 1, 0
   435,  1, 1,    0,   20,     53.46,      18.7, 0, 0, 0, 0, 1, 1, 0
   437,  1, 1,    0,    6,     344.7,     -31.1, 0, 0, 0, 0, 1, 1, 0
   440,  1, 1,    0,    9,      85.1,        67, 0, 0, 0, 0, 1, 1, 0
   444,  1, 1,    0,    3,     189.3,      76.7, 0, 0, 0, 0, 1, 1, 0
   445,  1, 1,    0,    8,     23.73,       9.4, 0, 0, 0, 0, 1, 1, 0
   446,  1, 1,    0,   11,     10.01,       -21, 0, 0, 0, 0, 1, 1, 0
   449,  1, 1,    0,    4,     228.1,     131.8, 0, 0, 0, 0, 1, 1, 0
   451,  1, 1,    0,   18,    -14.85,     -4.95, 0, 0, 0, 0, 1, 1, 0
   452,  1, 1,    0,    1,      20.9,         3, 0, 0, 0, 0, 1, 1, 0
...
0 / END OF LOAD DATA, BEGIN FIXED SHUNT DATA
     2, 1, 1,       0,    6.61
     3, 1, 1,       0,   16.61
     4, 1, 1,       0,    0.08
     5, 1, 1,       0,    4.69
     6, 1, 1,       0,     2.1
     7, 1, 1,       0,   13.34
     8, 1, 1, 0.70508, 36.8324
     9, 1, 1,       0, 75.0767
    10, 1, 1,       0,    0.65
    11, 1, 1,       0,    3.41
    13, 1, 1,       0,    1.91
    14, 1, 1,       0,   12.44
    16, 1, 1,       0,    0.47
    17, 1, 1,       0,     6.5
    19, 1, 1,       0,   12.84
    20, 1, 1,       0,    5.15
    21, 1, 1, 0.234457, -0.195381
    22, 1, 1,       0,    2.18
    23, 1, 1, 0.295874, 20.6034
    24, 1, 1,       0,    2.39
    25, 1, 1,       0,    4.93
    26, 1, 1,       0,   30.71
    27, 1, 1,       0,    0.85
    28, 1, 1,       0,    1.15
    30, 1, 1,       0,    0.73
    31, 1, 1, 0.235277, 0.313936
    32, 1, 1,       0,  110.54
    34, 1, 1,       0,   14.82
    36, 1, 1,       0,   27.65
    37, 1, 1,       0,    0.56
    38, 1, 1,       0,     6.3
    40, 1, 1,       0,   37.54
    41, 1, 1,       0,    0.25
    43, 1, 1,       0,     1.8
    44, 1, 1,       0,    0.31
    46, 1, 1,    0.12,   15.34
    47, 1, 1,       0,       2
    48, 1, 1,       0,    13.3
    49, 1, 1, 0.019959, 0.320041
    50, 1, 1,       0,     0.1
    52, 1, 1,       0,    4.23
    53, 1, 1,       0,   26.89
    55, 1, 1,       0,    7.27
    56, 1, 1,       0,    0.81
    57, 1, 1,       0,    1.14
    58, 1, 1,       0,    0.67
    59, 1, 1,       0,     0.6
    60, 1, 1, 0.318913, 17.7608
    61, 1, 1, 0.549745, 0.432068
    64, 1, 1,       0,    5.53
    65, 1, 1,       0,   20.51
    67, 1, 1,       0,    0.84
    70, 1, 1,       0,   16.37
    73, 1, 1,       0,    1.23
    80, 1, 1,       0,     6.5
    81, 1, 1,       0,    3.54
    82, 1, 1,       0,    2.31
    83, 1, 1,       0,    3.31
    84, 1, 1,       0,    9.57
    85, 1, 1,       0,    0.65
    89, 1, 1,       0,   58.57
    90, 1, 1,       0,    1.34
    91, 1, 1,       0,   21.25
    92, 1, 1,       0,    1.31
    93, 1, 1,       0,    0.79
    95, 1, 1,       0,    2.32
   103, 1, 1,       0,    1.15
   105, 1, 1,       0, 132.435
   106, 1, 1,       0,   55.24
   108, 1, 1,       0,    5.75
   109, 1, 1,       0,    0.11
   111, 1, 1,       0,    0.49
   112, 1, 1,       0,    1.17
   113, 1, 1,       0,   14.21
   116, 1, 1,       0,    0.73
   117, 1, 1,       0,    0.83
   118, 1, 1,       0,    8.76
   119, 1, 1, 0.174767, 14.1741
   120, 1, 1,       0,    1.47
   122, 1, 1,       0,    6.62
   123, 1, 1,       0,    7.22
   124, 1, 1,       0,    0.19
   125, 1, 1,       0,    5.74
   126, 1, 1,       0,    0.12
   127, 1, 1,       0,     0.5
   128, 1, 1,       0,      11
   129, 1, 1, 0.205132, 4.47074
   130, 1, 1,       0,    3.95
   131, 1, 1,       0,   20.75
   137, 1, 1,       0,    0.26
   138, 1, 1,       0,    0.65
   139, 1, 1,       0,    9.82
   140, 1, 1,       0,    4.58
   141, 1, 1,       0,    3.11
   142, 1, 1,       0,   24.77
   148, 1, 1,       0,   72.64
   149, 1, 1,       0,    3.77
   150, 1, 1,       0,   15.72
   152, 1, 1,       0,    2.15
   155, 1, 1,       0,   82.55
   157, 1, 1,       0,   10.28
   158, 1, 1, 0.019533, 1.69047
   159, 1, 1,       0,     0.4
   160, 1, 1,       0,     4.9
   164, 1, 1,       0,    3.09
   166, 1, 1,       0,    3.24
   167, 1, 1,       0,  6.5203
   168, 1, 1,       0,    4.21
   169, 1, 1,       0,    4.21
   170, 1, 1,       0,     0.3
   171, 1, 1,       0,    0.71
   172, 1, 1,       0,    0.96
   173, 1, 1,       0,    0.09
   174, 1, 1,       0,    0.64
   175, 1, 1,       0,    0.19
   176, 1, 1,       0,    5.75
   177, 1, 1, 0.019004,   4.361
   178, 1, 1, 0.566322, -0.241138
   180, 1, 1,       0,    1.22
   183, 1, 1,       0,     4.3
   184, 1, 1,       0,    0.52
   185, 1, 1,       0,    1.34
   186, 1, 1, 0.135375, 47.7507
   187, 1, 1,       0,    4.08
   189, 1, 1,       0,   21.39
   190, 1, 1,       0,    6.28
   191, 1, 1,       0,    94.9
   192, 1, 1,       0,    4.22
   193, 1, 1,       0,    0.74
   194, 1, 1,       0,   37.58
   195, 1, 1,       0,    29.9
   198, 1, 1,       0,   11.53
   199, 1, 1,       0,    4.14
   200, 1, 1, 0.020067, 4.32993
   201, 1, 1, 0.116699, 1.10248
   203, 1, 1,       0,    2.03
   204, 1, 1,       0,   98.53
   205, 1, 1, 0.529803, 56.5379
   206, 1, 1,       0,    7.64
   210, 1, 1, 0.076728, 5.69327
   211, 1, 1,       0,     6.1
   212, 1, 1,       0,    1.11
   213, 1, 1, 0.076917, 5.05308
   214, 1, 1,       0,    4.48
   215, 1, 1,       0,  107.29
   216, 1, 1,       0,   20.96
   217, 1, 1,       0,    0.56
   218, 1, 1,       0,    1.29
   219, 1, 1,       0,     1.7
   226, 1, 1,       0,     1.2
   227, 1, 1, 0.488616, 70.5806
   228, 1, 1,       0,    0.57
   230, 1, 1,       0,     0.1
   231, 1, 1,       0,    4.92
   232, 1, 1,       0,    0.16
   233, 1, 1,       0,   66.65
   235, 1, 1,       0,    8.34
   236, 1, 1,       0,    5.17
   237, 1, 1,       0, 51.2617
   238, 1, 1, 0.176128, 3.07323
   239, 1, 1,       0,    1.08
   240, 1, 1,       0,    6.09
   242, 1, 1,       0,    1.91
   244, 1, 1,       0,    5.24
   245, 1, 1,       0,    4.22
   246, 1, 1,       0,    8.49
   247, 1, 1,       0,    9.91
   249, 1, 1, 0.056872, 19.2531
   251, 1, 1,       0,    0.67
   252, 1, 1,       0,    5.07
   253, 1, 1,       0,       5
   254, 1, 1,       0,   16.46
   255, 1, 1,       0,    0.03
   256, 1, 1,       0,   113.7
   257, 1, 1, 0.100208,  131.58
   260, 1, 1,       0,    0.69
   261, 1, 1,       0,    6.49
   262, 1, 1,       0,    2.42
   263, 1, 1,       0,    4.11
   264, 1, 1,       0,    0.56
   265, 1, 1,       0,    1.48
   267, 1, 1,       0,     3.3
   268, 1, 1,       0,    0.43
   269, 1, 1, 0.060012, 0.149988
   272, 1, 1, 0.114032, 0.684974
   277, 1, 1,       0,    3.33
   279, 1, 1, 0.172756, -0.134366
   280, 1, 1, 0.039023, 0.210733
   281, 1, 1,       0,    8.52
   282, 1, 1,       0,   12.48
   284, 1, 1, 0.401208, 101.318
   285, 1, 1,       0,    1.44
   286, 1, 1,       0,       4
   287, 1, 1,       0,    1.34
   288, 1, 1,       0,   10.58
   290, 1, 1,       0,    4.73
   291, 1, 1,       0,    15.4
   292, 1, 1,       0,   12.38
   293, 1, 1, 0.181549, 14.6909
   295, 1, 1,       0,    1.29
...
0 / END OF FIXED SHUNT DATA, BEGIN GENERATOR DATA
     1,  1,     42.33,     15.72,        40,       -10, 1.031695, 0,     100, 0, 1, 0, 0, 1, 1, 100,       100,     28.22, 1, 1, 0, 1, 0, 1, 0, 1, 0, 1
    12,  1,    238.58,     -4.09,       210,       -50, 1.004054, 0,     100, 0, 1, 0, 0, 1, 1, 100,       500,       100, 1, 1, 0, 1, 0, 1, 0, 1, 0, 1
    18,  1,     38.02,     11.21,        30,       -10, 1.043087, 0,     100, 0, 1, 0, 0, 1, 1, 100,       100,     25.35, 1, 1, 0, 1, 0, 1, 0, 1, 0, 1
    29,  1,     34.78,     14.67,        30,       -10, 1.033319, 0,     100, 0, 1, 0, 0, 1, 1, 100,       100,     23.19, 1, 1, 0, 1, 0, 1, 0, 1, 0, 1
    33,  1,     25.35,       8.5,        40,       -10, 1.018631, 0,     100, 0, 1, 0, 0, 1, 1, 100,       100,      16.9, 1, 1, 0, 1, 0, 1, 0, 1, 0, 1
    39,  1,     214.6,     55.92,       210,       -50, 1.073284, 0,     100, 0, 1, 0, 0, 1, 1, 100,       500,       100, 1, 1, 0, 1, 0, 1, 0, 1, 0, 1
    42,  1,      16.1,     -4.12,        20,       -20, 0.985213, 0,     100, 0, 1, 0, 0, 1, 1, 100,       100,     10.73, 1, 1, 0, 1, 0, 1, 0, 1, 0, 1
    45,  1,    192.55,      1.87,       160,       -40, 1.012099, 0,     100, 0, 1, 0, 0, 1, 1, 100,       400,       100, 1, 1, 0, 1, 0, 1, 0, 1, 0, 1
    51,  1,       161,      0.83,        90,       -90, 1.011416, 0,     100, 0, 1, 0, 0, 1, 1, 100,       400,       100, 1, 1, 0, 1, 0, 1, 0, 1, 0, 1
    54,  1,     37.08,      5.51,        30,       -10, 1.021005, 0,     100, 0, 1, 0, 0, 1, 1, 100,       100,     24.72, 1, 1, 0, 1, 0, 1, 0, 1, 0, 1
    62,  1,     617.7,    178.65,       520,      -120, 1.058268, 0,     100, 0, 1, 0, 0, 1, 1, 100,      1300,       400, 1, 1, 0, 1, 0, 1, 0, 1, 0, 1
    63,  1,     617.7,    178.65,       520,      -120, 1.058268, 0,     100, 0, 1, 0, 0, 1, 1, 100,      1300,       400, 1, 1, 0, 1, 0, 1, 0, 1, 0, 1
    66,  1,    179.12,     14.03,       160,       -40, 1.034768, 0,     100, 0, 1, 0, 0, 1, 1, 100,       400,       100, 1, 1, 0, 1, 0, 1, 0, 1, 0, 1
    68,  1,     53.72,     11.91,        40,       -10, 1.035023, 0,     100, 0, 1, 0, 0, 1, 1, 100,       200,     35.81, 1, 1, 0, 1, 0, 1, 0, 1, 0, 1
    69,  1,     53.72,     11.91,        40,       -10, 1.035023, 0,     100, 0, 1, 0, 0, 1, 1, 100,       200,     35.81, 1, 1, 0, 1, 0, 1, 0, 1, 0, 1
    77,  1,     24.65,      6.97,        30,       -10, 1.038344, 0,     100, 0, 1, 0, 0, 1, 1, 100,       100,     16.43, 1, 1, 0, 1, 0, 1, 0, 1, 0, 1
    78,  1,     54.48,     10.37,        30,       -10, 1.027383, 0,     100, 0, 1, 0, 0, 1, 1, 100,       200,     36.32, 1, 1, 0, 1, 0, 1, 0, 1, 0, 1
    79,  1,     18.13,      3.85,        30,       -10, 1.016716, 0,     100, 0, 1, 0, 0, 1, 1, 100,       100,     12.09, 1, 1, 0, 1, 0, 1, 0, 1, 0, 1
    86,  1,     152.7,     32.92,        80,       -20, 1.023881, 0,     100, 0, 1, 0, 0, 1, 1, 100,       400,       100, 1, 1, 0, 1, 0, 1, 0, 1, 0, 1
    94,  1,     17.64,      3.05,        20,       -10, 1.022611, 0,     100, 0, 1, 0, 0, 1, 1, 100,       100,     11.76, 1, 1, 0, 1, 0, 1, 0, 1, 0, 1
    96,  1,     49.42,      5.32,        40,       -10, 1.043225, 0,     100, 0, 1, 0, 0, 1, 1, 100,       100,     32.95, 1, 1, 0, 1, 0, 1, 0, 1, 0, 1
    97,  1,     49.42,      5.32,        40,       -10, 1.043225, 0,     100, 0, 1, 0, 0, 1, 1, 100,       100,     32.95, 1, 1, 0, 1, 0, 1, 0, 1, 0, 1
    98,  1,     49.42,      5.32,        40,       -10, 1.043225, 0,     100, 0, 1, 0, 0, 1, 1, 100,       100,     32.95, 1, 1, 0, 1, 0, 1, 0, 1, 0, 1
    99,  1,     23.85,      6.18,        40,       -10, 1.031885, 0,     100, 0, 1, 0, 0, 1, 1, 100,       100,      15.9, 1, 1, 0, 1, 0, 1, 0, 1, 0, 1
   100,  1,     23.85,      6.18,        40,       -10, 1.031885, 0,     100, 0, 1, 0, 0, 1, 1, 100,       100,      15.9, 1, 1, 0, 1, 0, 1, 0, 1, 0, 1
   101,  1,     49.42,      5.32,        40,       -10, 1.043225, 0,     100, 0, 1, 0, 0, 1, 1, 100,       100,     32.95, 1, 1, 0, 1, 0, 1, 0, 1, 0, 1
   102,  1,     49.42,      5.32,        40,       -10, 1.043225, 0,     100, 0, 1, 0, 0, 1, 1, 100,       100,     32.95, 1, 1, 0, 1, 0, 1, 0, 1, 0, 1
   104,  1,     87.95,     47.73,        60,       -20, 1.052257, 0,     100, 0, 1, 0, 0, 1, 1, 100,       200,     58.63, 1, 1, 0, 1, 0, 1, 0, 1, 0, 1
   107,  1,     68.26,      9.75,        60,       -20, 1.028153, 0,     100, 0, 1, 0, 0, 1, 1, 100,       200,     45.51, 1, 1, 0, 1, 0, 1, 0, 1, 0, 1
   110,  1,     91.47,     10.42,        60,       -20, 1.051233, 0,     100, 0, 1, 0, 0, 1, 1, 100,       200,     60.98, 1, 1, 0, 1, 0, 1, 0, 1, 0, 1
   114,  1,     42.35,      6.03,        40,       -10, 1.030832, 0,     100, 0, 1, 0, 0, 1, 1, 100,       100,     28.23, 1, 1, 0, 1, 0, 1, 0, 1, 0, 1
   115,  1,     22.35,      5.33,        30,       -10,    1.019, 0,     100, 0, 1, 0, 0, 1, 1, 100,       100,      14.9, 1, 1, 0, 1, 0, 1, 0, 1, 0, 1
   121,  1,     36.03,     16.08,        30,       -10, 1.045359, 0,     100, 0, 1, 0, 0, 1, 1, 100,       100,     24.02, 1, 1, 0, 1, 0, 1, 0, 1, 0, 1
   132,  1,      6.52,      0.05,        10,       -10, 0.996117, 0,     100, 0, 1, 0, 0, 1, 1, 100,       100,      4.35, 1, 1, 0, 1, 0, 1, 0, 1, 0, 1
   133,  1,     36.77,     13.93,        30,       -10, 1.042317, 0,     100, 0, 1, 0, 0, 1, 1, 100,       100,     24.51, 1, 1, 0, 1, 0, 1, 0, 1, 0, 1
   134,  1,     45.54,      5.69,        40,       -10, 1.044129, 0,     100, 0, 1, 0, 0, 1, 1, 100,       100,     30.36, 1, 1, 0, 1, 0, 1, 0, 1, 0, 1
   135,  1,     42.35,      6.03,        40,       -10, 1.030832, 0,     100, 0, 1, 0, 0, 1, 1, 100,       100,     28.23, 1, 1, 0, 1, 0, 1, 0, 1, 0, 1
   136,  1,     50.83,      3.96,        60,       -20, 1.049674, 0,     100, 0, 1, 0, 0, 1, 1, 100,       200,     33.89, 1, 1, 0, 1, 0, 1, 0, 1, 0, 1
   144,  1,      17.8,     10.21,        30,       -10, 1.034631, 0,     100, 0, 1, 0, 0, 1, 1, 100,       100,     11.87, 1, 1, 0, 1, 0, 1, 0, 1, 0, 1
   145,  1,    612.01,    227.35,       520,      -120, 1.040587, 0,     100, 0, 1, 0, 0, 1, 1, 100,      1300,       400, 1, 1, 0, 1, 0, 1, 0, 1, 0, 1
   146,  1,    612.04,    259.97,       520,      -120, 1.044313, 0,     100, 0, 1, 0, 0, 1, 1, 100,      1300,       400, 1, 1, 0, 1, 0, 1, 0, 1, 0, 1
   147,  1,    612.04,    259.97,       520,      -120, 1.044313, 0,     100, 0, 1, 0, 0, 1, 1, 100,      1300,       400, 1, 1, 0, 1, 0, 1, 0, 1, 0, 1
   151,  1,       204,     30.47,       150,       -60, 1.023215, 0,     100, 0, 1, 0, 0, 1, 1, 100,       500,       100, 1, 1, 0, 1, 0, 1, 0, 1, 0, 1
   153,  1,     36.13,      4.17,        30,       -10, 1.027348, 0,     100, 0, 1, 0, 0, 1, 1, 100,       100,     24.09, 1, 1, 0, 1, 0, 1, 0, 1, 0, 1
   154,  1,    766.83,      2.68,       520,      -120,  1.05252, 0,     100, 0, 1, 0, 0, 1, 1, 100,      1600,       500, 1, 1, 0, 1, 0, 1, 0, 1, 0, 1
   156,  1,     49.34,      9.15,        40,       -10, 1.034597, 0,     100, 0, 1, 0, 0, 1, 1, 100,       100,     32.89, 1, 1, 0, 1, 0, 1, 0, 1, 0, 1
   161,  1,     49.34,      9.15,        40,       -10, 1.034597, 0,     100, 0, 1, 0, 0, 1, 1, 100,       100,     32.89, 1, 1, 0, 1, 0, 1, 0, 1, 0, 1
   162,  1,     49.34,      9.15,        40,       -10, 1.034597, 0,     100, 0, 1, 0, 0, 1, 1, 100,       100,     32.89, 1, 1, 0, 1, 0, 1, 0, 1, 0, 1
   165,  1,     42.35,      6.03,        40,       -10, 1.030832, 0,     100, 0, 1, 0, 0, 1, 1, 100,       100,     28.23, 1, 1, 0, 1, 0, 1, 0, 1, 0, 1
   179,  1,     95.02,      8.09,        60,       -20, 1.023144, 0,     100, 0, 1, 0, 0, 1, 1, 100,       200,     63.35, 1, 1, 0, 1, 0, 1, 0, 1, 0, 1
   182,  1,     34.96,     12.97,        30,       -10, 1.054937, 0,     100, 0, 1, 0, 0, 1, 1, 100,       100,     23.31, 1, 1, 0, 1, 0, 1, 0, 1, 0, 1
   196,  1,     81.07,     20.71,        60,       -20, 1.021915, 0,     100, 0, 1, 0, 0, 1, 1, 100,       200,     54.05, 1, 1, 0, 1, 0, 1, 0, 1, 0, 1
   197,  1,    245.73,      1.48,       160,       -40, 1.005341, 0,     100, 0, 1, 0, 0, 1, 1, 100,       500,       100, 1, 1, 0, 1, 0, 1, 0, 1, 0, 1
   207,  1,     27.95,      4.02,        30,       -10, 1.016461, 0,     100, 0, 1, 0, 0, 1, 1, 100,       100,     18.63, 1, 1, 0, 1, 0, 1, 0, 1, 0, 1
   220,  1,     97.72,     38.87,        60,       -20, 1.055654, 0,     100, 0, 1, 0, 0, 1, 1, 100,       200,     65.15, 1, 1, 0, 1, 0, 1, 0, 1, 0, 1
   221,  1,     97.72,     38.87,        60,       -20, 1.055654, 0,     100, 0, 1, 0, 0, 1, 1, 100,       200,     65.15, 1, 1, 0, 1, 0, 1, 0, 1, 0, 1
   222,  1,     97.66,     41.74,        60,       -20, 1.051105, 0,     100, 0, 1, 0, 0, 1, 1, 100,       200,     65.11, 1, 1, 0, 1, 0, 1, 0, 1, 0, 1
   223,  1,     97.72,     38.87,        60,       -20, 1.055654, 0,     100, 0, 1, 0, 0, 1, 1, 100,       200,     65.15, 1, 1, 0, 1, 0, 1, 0, 1, 0, 1
   224,  1,     97.66,     41.74,        60,       -20, 1.051105, 0,     100, 0, 1, 0, 0, 1, 1, 100,       200,     65.11, 1, 1, 0, 1, 0, 1, 0, 1, 0, 1
   225,  1,     97.66,     41.74,        60,       -20, 1.051105, 0,     100, 0, 1, 0, 0, 1, 1, 100,       200,     65.11, 1, 1, 0, 1, 0, 1, 0, 1, 0, 1
   229,  1,     21.03,      9.77,        30,       -10, 1.034441, 0,     100, 0, 1, 0, 0, 1, 1, 100,       100,     14.02, 1, 1, 0, 1, 0, 1, 0, 1, 0, 1
   241,  1,    601.87,     179.7,       520,      -120, 1.037622, 0,     100, 0, 1, 0, 0, 1, 1, 100,      1300,       400, 1, 1, 0, 1, 0, 1, 0, 1, 0, 1
   243,  1,     32.43,     17.87,        30,       -10, 1.053647, 0,     100, 0, 1, 0, 0, 1, 1, 100,       100,     21.62, 1, 1, 0, 1, 0, 1, 0, 1, 0, 1
   248,  1,     26.38,       8.7,        30,       -10, 1.026279, 0,     100, 0, 1, 0, 0, 1, 1, 100,       100,     17.59, 1, 1, 0, 1, 0, 1, 0, 1, 0, 1
   250,  1,    192.55,      1.87,       160,       -40, 1.012099, 0,     100, 0, 1, 0, 0, 1, 1, 100,       400,       100, 1, 1, 0, 1, 0, 1, 0, 1, 0, 1
   258,  1,       8.2,     -2.56,        10,       -10, 0.955439, 0,     100, 0, 1, 0, 0, 1, 1, 100,       100,      5.47, 1, 1, 0, 1, 0, 1, 0, 1, 0, 1
   259,  1,     38.51,      8.85,        30,       -10,  1.03425, 0,     100, 0, 1, 0, 0, 1, 1, 100,       100,     25.67, 1, 1, 0, 1, 0, 1, 0, 1, 0, 1
   266,  1,     28.48,      6.95,        30,       -10, 1.005915, 0,     100, 0, 1, 0, 0, 1, 1, 100,       100,     18.99, 1, 1, 0, 1, 0, 1, 0, 1, 0, 1
   270,  1,      18.4,     -1.01,        20,       -20, 1.003342, 0,     100, 0, 1, 0, 0, 1, 1, 100,       100,     12.27, 1, 1, 0, 1, 0, 1, 0, 1, 0, 1
   271,  1,    626.63,     195.6,       520,      -120, 1.053159, 0,     100, 0, 1, 0, 0, 1, 1, 100,      1300,       400, 1, 1, 0, 1, 0, 1, 0, 1, 0, 1
   273,  1,    626.63,     190.1,       520,      -120, 1.051456, 0,     100, 0, 1, 0, 0, 1, 1, 100,      1300,       400, 1, 1, 0, 1, 0, 1, 0, 1, 0, 1
   274,  1,    626.64,    188.59,       520,      -120, 1.051088, 0,     100, 0, 1, 0, 0, 1, 1, 100,      1300,       400, 1, 1, 0, 1, 0, 1, 0, 1, 0, 1
   275,  1,    626.64,    188.59,       520,      -120, 1.051088, 0,     100, 0, 1, 0, 0, 1, 1, 100,      1300,       400, 1, 1, 0, 1, 0, 1, 0, 1, 0, 1
   276,  1,    626.64,    187.14,       520,      -120, 1.050379, 0,     100, 0, 1, 0, 0, 1, 1, 100,      1300,       400, 1, 1, 0, 1, 0, 1, 0, 1, 0, 1
   278,  1,       627,     28.92,       320,      -190, 0.960771, 0,     100, 0, 1, 0, 0, 1, 1, 100,      1300,       400, 1, 1, 0, 1, 0, 1, 0, 1, 0, 1
   283,  1,         8,      0.73,        10,       -10, 1.000621, 0,     100, 0, 1, 0, 0, 1, 1, 100,       100,      5.33, 1, 1, 0, 1, 0, 1, 0, 1, 0, 1
   289,  1,      36.9,     11.76,        30,       -10, 1.040289, 0,     100, 0, 1, 0, 0, 1, 1, 100,       100,      24.6, 1, 1, 0, 1, 0, 1, 0, 1, 0, 1
   294,  1,      92.8,      3.25,        50,       -50, 0.999187, 0,     100, 0, 1, 0, 0, 1, 1, 100,       200,     61.87, 1, 1, 0, 1, 0, 1, 0, 1, 0, 1
   296,  1,        21,       0.7,        10,       -10, 0.989117, 0,     100, 0, 1, 0, 0, 1, 1, 100,       100,        14, 1, 1, 0, 1, 0, 1, 0, 1, 0, 1
   299,  1,     158.9,     35.36,       100,       -30, 0.993468, 0,     100, 0, 1, 0, 0, 1, 1, 100,       400,       100, 1, 1, 0, 1, 0, 1, 0, 1, 0, 1
   304,  1,     39.98,       8.7,        30,       -10, 1.037997, 0,     100, 0, 1, 0, 0, 1, 1, 100,       100,     26.65, 1, 1, 0, 1, 0, 1, 0, 1, 0, 1
   305,  1,     27.73,         2,        30,       -10, 1.030407, 0,     100, 0, 1, 0, 0, 1, 1, 100,       100,     18.49, 1, 1, 0, 1, 0, 1, 0, 1, 0, 1
   306,  1,     27.73,         2,        30,       -10, 1.030407, 0,     100, 0, 1, 0, 0, 1, 1, 100,       100,     18.49, 1, 1, 0, 1, 0, 1, 0, 1, 0, 1
   307,  1,     17.66,      6.95,        30,       -10, 1.049321, 0,     100, 0, 1, 0, 0, 1, 1, 100,       100,     11.77, 1, 1, 0, 1, 0, 1, 0, 1, 0, 1
   308,  1,     17.66,      6.95,        30,       -10, 1.049321, 0,     100, 0, 1, 0, 0, 1, 1, 100,       100,     11.77, 1, 1, 0, 1, 0, 1, 0, 1, 0, 1
   309,  1,     32.08,      3.64,        30,       -10,  1.05655, 0,     100, 0, 1, 0, 0, 1, 1, 100,       100,     21.39, 1, 1, 0, 1, 0, 1, 0, 1, 0, 1
   310,  1,     32.08,      3.64,        30,       -10,  1.05655, 0,     100, 0, 1, 0, 0, 1, 1, 100,       100,     21.39, 1, 1, 0, 1, 0, 1, 0, 1, 0, 1
   311,  1,     32.08,      3.64,        30,       -10,  1.05655, 0,     100, 0, 1, 0, 0, 1, 1, 100,       100,     21.39, 1, 1, 0, 1, 0, 1, 0, 1, 0, 1
   312,  1,     32.08,      3.64,        30,       -10,  1.05655, 0,     100, 0, 1, 0, 0, 1, 1, 100,       100,     21.39, 1, 1, 0, 1, 0, 1, 0, 1, 0, 1
   315,  1,      2.06,      0.62,        10,       -10, 1.021202, 0,     100, 0, 1, 0, 0, 1, 1, 100,       100,      1.37, 1, 1, 0, 1, 0, 1, 0, 1, 0, 1
   323,  1,    419.13,    110.83,       520,      -120, 1.016993, 0,     100, 0, 1, 0, 0, 1, 1, 100,       900,       200, 1, 1, 0, 1, 0, 1, 0, 1, 0, 1
   324,  1,         5,      1.91,        10,       -10, 1.024179, 0,     100, 0, 1, 0, 0, 1, 1, 100,       100,      3.33, 1, 1, 0, 1, 0, 1, 0, 1, 0, 1
   325,  1,       4.8,     -0.12,        10,       -10, 0.996355, 0,     100, 0, 1, 0, 0, 1, 1, 100,       100,       3.2, 1, 1, 0, 1, 0, 1, 0, 1, 0, 1
   328,  1,     54.54,     27.56,        40,       -10, 1.023168, 0,     100, 0, 1, 0, 0, 1, 1, 100,       200,     36.36, 1, 1, 0, 1, 0, 1, 0, 1, 0, 1
   331,  1,     27.62,      3.89,        30,       -20, 1.006233, 0,     100, 0, 1, 0, 0, 1, 1, 100,       100,     18.41, 1, 1, 0, 1, 0, 1, 0, 1, 0, 1
   332,  1,         2,        -0,        10,       -10, 0.996766, 0,     100, 0, 1, 0, 0, 1, 1, 100,       100,      1.33, 1, 1, 0, 1, 0, 1, 0, 1, 0, 1
   336,  1,     16.08,      0.01,        10,       -10, 1.010862, 0,     100, 0, 1, 0, 0, 1, 1, 100,       100,     10.72, 1, 1, 0, 1, 0, 1, 0, 1, 0, 1
   338,  1,     16.08,     -0.17,        10,       -10,  1.00038, 0,     100, 0, 1, 0, 0, 1, 1, 100,       100,     10.72, 1, 1, 0, 1, 0, 1, 0, 1, 0, 1
   345,  1,     333.1,     57.13,       210,       -50, 1.030395, 0,     100, 0, 1, 0, 0, 1, 1, 100,       700,       200, 1, 1, 0, 1, 0, 1, 0, 1, 0, 1
   346,  1,     333.1,     57.13,       210,       -50, 1.030395, 0,     100, 0, 1, 0, 0, 1, 1, 100,       700,       200, 1, 1, 0, 1, 0, 1, 0, 1, 0, 1
   351,  1,    167.59,     39.08,       210,       -50, 1.024484, 0,     100, 0, 1, 0, 0, 1, 1, 100,       400,       100, 1, 1, 0, 1, 0, 1, 0, 1, 0, 1
   354,  1,     36.42,      7.96,        30,       -10, 1.029166, 0,     100, 0, 1, 0, 0, 1, 1, 100,       100,     24.28, 1, 1, 0, 1, 0, 1, 0, 1, 0, 1
   358,  1,    165.24,    104.62,       210,       -50, 1.050725, 0,     100, 0, 1, 0, 0, 1, 1, 100,       400,       100, 1, 1, 0, 1, 0, 1, 0, 1, 0, 1
   360,  1,     84.12,     16.88,        60,       -20, 1.028641, 0,     100, 0, 1, 0, 0, 1, 1, 100,       200,     56.08, 1, 1, 0, 1, 0, 1, 0, 1, 0, 1
   361,  1,     84.12,     16.88,        60,       -20, 1.028641, 0,     100, 0, 1, 0, 0, 1, 1, 100,       200,     56.08, 1, 1, 0, 1, 0, 1, 0, 1, 0, 1
   362,  1,     84.12,     16.88,        60,       -20, 1.028641, 0,     100, 0, 1, 0, 0, 1, 1, 100,       200,     56.08, 1, 1, 0, 1, 0, 1, 0, 1, 0, 1
   363,  1,     84.12,     16.88,        60,       -20, 1.028641, 0,     100, 0, 1, 0, 0, 1, 1, 100,       200,     56.08, 1, 1, 0, 1, 0, 1, 0, 1, 0, 1
   364,  1,      5.25,      0.21,        10,       -10,  1.00564, 0,     100, 0, 1, 0, 0, 1, 1, 100,       100,       3.5, 1, 1, 0, 1, 0, 1, 0, 1, 0, 1
   365,  1,      95.2,     36.17,       110,       -30, 0.997585, 0,     100, 0, 1, 0, 0, 1, 1, 100,       200,     63.47, 1, 1, 0, 1, 0, 1, 0, 1, 0, 1
   368,  1,     84.12,     16.88,        60,       -20, 1.028641, 0,     100, 0, 1, 0, 0, 1, 1, 100,       200,     56.08, 1, 1, 0, 1, 0, 1, 0, 1, 0, 1
   369,  1,     84.12,     16.88,        60,       -20, 1.028641, 0,     100, 0, 1, 0, 0, 1, 1, 100,       200,     56.08, 1, 1, 0, 1, 0, 1, 0, 1, 0, 1
   382,  1,    102.03,     10.64,        60,       -20, 0.990596, 0,     100, 0, 1, 0, 0, 1, 1, 100,       300,     68.02, 1, 1, 0, 1, 0, 1, 0, 1, 0, 1
   383,  1,    102.24,     30.32,        60,       -20, 1.012482, 0,     100, 0, 1, 0, 0, 1, 1, 100,       300,     68.16, 1, 1, 0, 1, 0, 1, 0, 1, 0, 1
   392,  1,      1.03,      0.09,        10,       -10, 1.030636, 0,     100, 0, 1, 0, 0, 1, 1, 100,       100,      0.69, 1, 1, 0, 1, 0, 1, 0, 1, 0, 1
   394,  1,      37.9,     13.47,        30,       -10,   1.0326, 0,     100, 0, 1, 0, 0, 1, 1, 100,       100,     25.27, 1, 1, 0, 1, 0, 1, 0, 1, 0, 1
   395,  1,     37.23,      4.01,        30,       -10, 1.028283, 0,     100, 0, 1, 0, 0, 1, 1, 100,       100,     24.82, 1, 1, 0, 1, 0, 1, 0, 1, 0, 1
   396,  1,     85.28,     21.31,        60,       -20, 1.029542, 0,     100, 0, 1, 0, 0, 1, 1, 100,       200,     56.85, 1, 1, 0, 1, 0, 1, 0, 1, 0, 1
   400,  1,      94.5,      8.92,        50,       -40, 0.979015, 0,     100, 0, 1, 0, 0, 1, 1, 100,       200,        63, 1, 1, 0, 1, 0, 1, 0, 1, 0, 1
   405,  1,     33.64,       6.9,        30,       -10,  1.00773, 0,     100, 0, 1, 0, 0, 1, 1, 100,       100,     22.43, 1, 1, 0, 1, 0, 1, 0, 1, 0, 1
   406,  1,     33.64,       6.9,        30,       -10,  1.00773, 0,     100, 0, 1, 0, 0, 1, 1, 100,       100,     22.43, 1, 1, 0, 1, 0, 1, 0, 1, 0, 1
   408,  1,     34.92,      9.74,        30,       -10, 1.043492, 0,     100, 0, 1, 0, 0, 1, 1, 100,       100,     23.28, 1, 1, 0, 1, 0, 1, 0, 1, 0, 1
   423,  1,      0.99,     -0.05,        10,       -10, 1.015919, 0,     100, 0, 1, 0, 0, 1, 1, 100,       100,      0.66, 1, 1, 0, 1, 0, 1, 0, 1, 0, 1
   432,  1,       4.5,      0.47,        10,       -10, 1.016602, 0,     100, 0, 1, 0, 0, 1, 1, 100,       100,         3, 1, 1, 0, 1, 0, 1, 0, 1, 0, 1
   433,  1,     30.04,      7.71,        30,       -10, 1.011489, 0,     100, 0, 1, 0, 0, 1, 1, 100,       100,     20.03, 1, 1, 0, 1, 0, 1, 0, 1, 0, 1
   438,  1,     18.13,      3.85,        30,       -10, 1.016716, 0,     100, 0, 1, 0, 0, 1, 1, 100,       100,     12.09, 1, 1, 0, 1, 0, 1, 0, 1, 0, 1
   442,  1,     31.35,     11.33,        30,       -10, 1.043357, 0,     100, 0, 1, 0, 0, 1, 1, 100,       100,      20.9, 1, 1, 0, 1, 0, 1, 0, 1, 0, 1
   448,  1,     25.22,      6.35,        20,       -10, 1.038795, 0,     100, 0, 1, 0, 0, 1, 1, 100,       100,     16.81, 1, 1, 0, 1, 0, 1, 0, 1, 0, 1
...